Error: no such device or model name node1
Note: Starting dynamic gmin stepping
Note: Dynamic gmin stepping completed
 Reference value :  3.00000e+01
Note: Starting dynamic gmin stepping
Note: Dynamic gmin stepping completed
 Reference value :  3.00000e+01
******
** ngspice-36 : Circuit level simulation program
** The U. C. Berkeley CAD Group
** Copyright 1985-1994, Regents of the University of California.
** Copyright 2001-2020, The ngspice team.
** Please get your ngspice manual from http://ngspice.sourceforge.net/docs.html
** Please file your bug-reports at http://ngspice.sourceforge.net/bugrep.html
** Creation Date: Sat Jan  1 18:54:42 UTC 2022
******

No compatibility mode selected!


Circuit: *include 22nm_MGK.pm

node1 basic = 1.8
WMIN=22n
Doing analysis at TEMP = 27.000000 and TNOM = 27.000000


No. of Data Rows : 2
                              *include 22nm_MGK.pm
                              DC transfer characteristic  Tue Nov 29 01:47:23  2022
--------------------------------------------------------------------------------
Index   temp-sweep      v(node1)        v(a3)           v(a2)           
--------------------------------------------------------------------------------
0	3.000000e+01	1.800000e+00	0.000000e+00	0.000000e+00	
1	1.000000e+02	1.800000e+00	0.000000e+00	0.000000e+00	

                              *include 22nm_MGK.pm
                              DC transfer characteristic  Tue Nov 29 01:47:23  2022
--------------------------------------------------------------------------------
Index   temp-sweep      v(a1)           v(a0)           v(b3)           
--------------------------------------------------------------------------------
0	3.000000e+01	0.000000e+00	0.000000e+00	0.000000e+00	
1	1.000000e+02	0.000000e+00	0.000000e+00	0.000000e+00	

                              *include 22nm_MGK.pm
                              DC transfer characteristic  Tue Nov 29 01:47:23  2022
--------------------------------------------------------------------------------
Index   temp-sweep      v(b2)           v(b1)           v(b0)           
--------------------------------------------------------------------------------
0	3.000000e+01	0.000000e+00	0.000000e+00	0.000000e+00	
1	1.000000e+02	0.000000e+00	0.000000e+00	0.000000e+00	

                              *include 22nm_MGK.pm
                              DC transfer characteristic  Tue Nov 29 01:47:23  2022
--------------------------------------------------------------------------------
Index   temp-sweep      (-v(node1)*i(vd 
--------------------------------------------------------------------------------
0	3.000000e+01	5.962712e-03	
1	1.000000e+02	6.071835e-03	
Doing analysis at TEMP = 27.000000 and TNOM = 27.000000


No. of Data Rows : 2
                              *include 22nm_MGK.pm
                              DC transfer characteristic  Tue Nov 29 01:47:23  2022
--------------------------------------------------------------------------------
Index   temp-sweep      v(node1)        v(a3)           v(a2)           
--------------------------------------------------------------------------------
0	3.000000e+01	1.800000e+00	0.000000e+00	0.000000e+00	
1	1.000000e+02	1.800000e+00	0.000000e+00	0.000000e+00	

                              *include 22nm_MGK.pm
                              DC transfer characteristic  Tue Nov 29 01:47:23  2022
--------------------------------------------------------------------------------
Index   temp-sweep      v(a1)           v(a0)           v(b3)           
---------------------------------------------Note: Starting dynamic gmin stepping
Note: Dynamic gmin stepping completed
 Reference value :  3.00000e+01
Note: Starting dynamic gmin stepping
Note: Dynamic gmin stepping completed
 Reference value :  3.00000e+01
-----------------------------------
0	3.000000e+01	0.000000e+00	0.000000e+00	1.800000e+00	
1	1.000000e+02	0.000000e+00	0.000000e+00	1.800000e+00	

                              *include 22nm_MGK.pm
                              DC transfer characteristic  Tue Nov 29 01:47:23  2022
--------------------------------------------------------------------------------
Index   temp-sweep      v(b2)           v(b1)           v(b0)           
--------------------------------------------------------------------------------
0	3.000000e+01	0.000000e+00	0.000000e+00	0.000000e+00	
1	1.000000e+02	0.000000e+00	0.000000e+00	0.000000e+00	

                              *include 22nm_MGK.pm
                              DC transfer characteristic  Tue Nov 29 01:47:23  2022
--------------------------------------------------------------------------------
Index   temp-sweep      (-v(node1)*i(vd 
--------------------------------------------------------------------------------
0	3.000000e+01	5.804455e-03	
1	1.000000e+02	5.917211e-03	
Doing analysis at TEMP = 27.000000 and TNOM = 27.000000


No. of Data Rows : 2
                              *include 22nm_MGK.pm
                              DC transfer characteristic  Tue Nov 29 01:47:24  2022
--------------------------------------------------------------------------------
Index   temp-sweep      v(node1)        v(a3)           v(a2)           
--------------------------------------------------------------------------------
0	3.000000e+01	1.800000e+00	0.000000e+00	0.000000e+00	
1	1.000000e+02	1.800000e+00	0.000000e+00	0.000000e+00	

                              *include 22nm_MGK.pm
                              DC transfer characteristic  Tue Nov 29 01:47:24  2022
--------------------------------------------------------------------------------
Index   temp-sweep      v(a1)           v(a0)           v(b3)           
--------------------------------------------------------------------------------
0	3.000000e+01	0.000000e+00	0.000000e+00	0.000000e+00	
1	1.000000e+02	0.000000e+00	0.000000e+00	0.000000e+00	

                              *include 22nm_MGK.pm
                              DC transfer characteristic  Tue Nov 29 01:47:24  2022
--------------------------------------------------------------------------------
Index   temp-sweep      v(b2)           v(b1)           v(b0)           
--------------------------------------------------------------------------------
0	3.000000e+01	1.800000e+00	0.000000e+00	0.000000e+00	
1	1.000000e+02	1.800000e+00	0.000000e+00	0.000000e+00	

                              *include 22nm_MGK.pm
                              DC transfer characteristic  Tue Nov 29 01:47:24  2022
--------------------------------------------------------------------------------
Index   temp-sweep      (-v(node1)*i(vd 
--------------------------------------------------------------------------------
0	3.000000e+01	5.804457e-03	
1	1.000000e+02	5.917182e-03	
Doing analysis at TEMP = 27.000000 and TNOM = 27.000000


No. of Data Rows : 2
                              *include 22nm_MGK.pm
                              DC transfer characteristic  Tue Nov 29 01:47:24  2022
--------------------------------------------------------------------------------
Index   temp-sweep      v(node1)        v(a3)           v(a2)           
-Note: Starting dynamic gmin stepping
Note: Dynamic gmin stepping completed
 Reference value :  3.00000e+01
Note: Starting dynamic gmin stepping
Note: Dynamic gmin stepping completed
 Reference value :  3.00000e+01
-------------------------------------------------------------------------------
0	3.000000e+01	1.800000e+00	0.000000e+00	0.000000e+00	
1	1.000000e+02	1.800000e+00	0.000000e+00	0.000000e+00	

                              *include 22nm_MGK.pm
                              DC transfer characteristic  Tue Nov 29 01:47:24  2022
--------------------------------------------------------------------------------
Index   temp-sweep      v(a1)           v(a0)           v(b3)           
--------------------------------------------------------------------------------
0	3.000000e+01	0.000000e+00	0.000000e+00	1.800000e+00	
1	1.000000e+02	0.000000e+00	0.000000e+00	1.800000e+00	

                              *include 22nm_MGK.pm
                              DC transfer characteristic  Tue Nov 29 01:47:24  2022
--------------------------------------------------------------------------------
Index   temp-sweep      v(b2)           v(b1)           v(b0)           
--------------------------------------------------------------------------------
0	3.000000e+01	1.800000e+00	0.000000e+00	0.000000e+00	
1	1.000000e+02	1.800000e+00	0.000000e+00	0.000000e+00	

                              *include 22nm_MGK.pm
                              DC transfer characteristic  Tue Nov 29 01:47:24  2022
--------------------------------------------------------------------------------
Index   temp-sweep      (-v(node1)*i(vd 
--------------------------------------------------------------------------------
0	3.000000e+01	5.646200e-03	
1	1.000000e+02	5.762558e-03	
Doing analysis at TEMP = 27.000000 and TNOM = 27.000000


No. of Data Rows : 2
                              *include 22nm_MGK.pm
                              DC transfer characteristic  Tue Nov 29 01:47:24  2022
--------------------------------------------------------------------------------
Index   temp-sweep      v(node1)        v(a3)           v(a2)           
--------------------------------------------------------------------------------
0	3.000000e+01	1.800000e+00	0.000000e+00	0.000000e+00	
1	1.000000e+02	1.800000e+00	0.000000e+00	0.000000e+00	

                              *include 22nm_MGK.pm
                              DC transfer characteristic  Tue Nov 29 01:47:24  2022
--------------------------------------------------------------------------------
Index   temp-sweep      v(a1)           v(a0)           v(b3)           
--------------------------------------------------------------------------------
0	3.000000e+01	0.000000e+00	0.000000e+00	0.000000e+00	
1	1.000000e+02	0.000000e+00	0.000000e+00	0.000000e+00	

                              *include 22nm_MGK.pm
                              DC transfer characteristic  Tue Nov 29 01:47:24  2022
--------------------------------------------------------------------------------
Index   temp-sweep      v(b2)           v(b1)           v(b0)           
--------------------------------------------------------------------------------
0	3.000000e+01	0.000000e+00	1.800000e+00	0.000000e+00	
1	1.000000e+02	0.000000e+00	1.800000e+00	0.000000e+00	

                              *include 22nm_MGK.pm
                              DC transfer characteristic  Tue Nov 29 01:47:24  2022
--------------------------------------------------------------------------------
Index   temp-sweep      (-v(node1)*i(vd 
--------------------------------------------------------------------------------
0	3.000000e+01	5.804429e-03	
1	1.000000e+02	5.917395e-03	
Doing analysis at TEMP = 27.000000 and TNOM = 27.000000

Note: Dynamic gmin stepping completed
 Reference value :  3.00000e+01
and dtox all given and toxe != toxp + dtox; dtox ignored.

No. of Data Rows : 2
                              *include 22nm_MGK.pm
                              DC transfer characteristic  Tue Nov 29 01:47:24  2022
--------------------------------------------------------------------------------
Index   temp-sweep      v(node1)        v(a3)           v(a2)           
--------------------------------------------------------------------------------
0	3.000000e+01	1.800000e+00	0.000000e+00	0.000000e+00	
1	1.000000e+02	1.800000e+00	0.000000e+00	0.000000e+00	

                              *include 22nm_MGK.pm
                              DC transfer characteristic  Tue Nov 29 01:47:24  2022
--------------------------------------------------------------------------------
Index   temp-sweep      v(a1)           v(a0)           v(b3)           
--------------------------------------------------------------------------------
0	3.000000e+01	0.000000e+00	0.000000e+00	1.800000e+00	
1	1.000000e+02	0.000000e+00	0.000000e+00	1.800000e+00	

                              *include 22nm_MGK.pm
                              DC transfer characteristic  Tue Nov 29 01:47:24  2022
--------------------------------------------------------------------------------
Index   temp-sweep      v(b2)           v(b1)           v(b0)           
--------------------------------------------------------------------------------
0	3.000000e+01	0.000000e+00	1.800000e+00	0.000000e+00	
1	1.000000e+02	0.000000e+00	1.800000e+00	0.000000e+00	

                              *include 22nm_MGK.pm
                              DC transfer characteristic  Tue Nov 29 01:47:24  2022
--------------------------------------------------------------------------------
Index   temp-sweep      (-v(node1)*i(vd 
--------------------------------------------------------------------------------
0	3.000000e+01	5.646172e-03	
1	1.000000e+02	5.762771e-03	
Doing analysis at TEMP = 27.000000 and TNOM = 27.000000


No. of Data Rows : 2
                              *include 22nm_MGK.pm
                              DC transfer characteristic  Tue Nov 29 01:47:25  2022
--------------------------------------------------------------------------------
Index   temp-sweep      v(node1)        v(a3)           v(a2)           
--------------------------------------------------------------------------------
0	3.000000e+01	1.800000e+00	0.000000e+00	0.000000e+00	
1	1.000000e+02	1.800000e+00	0.000000e+00	0.000000e+00	

                              *include 22nm_MGK.pm
                              DC transfer characteristic  Tue Nov 29 01:47:25  2022
--------------------------------------------------------------------------------
Index   temp-sweep      v(a1)           v(a0)           v(b3)           
--------------------------------------------------------------------------------
0	3.000000e+01	0.000000e+00	0.000000e+00	0.000000e+00	
1	1.000000e+02	0.000000e+00	0.000000e+00	0.000000e+00	

                              *include 22nm_MGK.pm
                              DC transfer characteristic  Tue Nov 29 01:47:25  2022
--------------------------------------------------------------------------------
Index   temp-sweep      v(b2)           v(b1)           v(b0)           
--------------------------------------------------------------------------------
0	3.000000e+01	1.800000e+00	1.800000e+00	0.000000e+00	
1	1.000000e+02	1.800000e+00	1.800000e+00	0.000000e+00	

                              *include 22nm_MGK.pm
                              DC transfer characteriNote: Starting dynamic gmin stepping
Note: Dynamic gmin stepping completed
 Reference value :  3.00000e+01
Note: Starting dynamic gmin stepping
Note: Dynamic gmin stepping completed
 Reference value :  3.00000e+01
stic  Tue Nov 29 01:47:25  2022
--------------------------------------------------------------------------------
Index   temp-sweep      (-v(node1)*i(vd 
--------------------------------------------------------------------------------
0	3.000000e+01	5.646174e-03	
1	1.000000e+02	5.762742e-03	
Doing analysis at TEMP = 27.000000 and TNOM = 27.000000


No. of Data Rows : 2
                              *include 22nm_MGK.pm
                              DC transfer characteristic  Tue Nov 29 01:47:25  2022
--------------------------------------------------------------------------------
Index   temp-sweep      v(node1)        v(a3)           v(a2)           
--------------------------------------------------------------------------------
0	3.000000e+01	1.800000e+00	0.000000e+00	0.000000e+00	
1	1.000000e+02	1.800000e+00	0.000000e+00	0.000000e+00	

                              *include 22nm_MGK.pm
                              DC transfer characteristic  Tue Nov 29 01:47:25  2022
--------------------------------------------------------------------------------
Index   temp-sweep      v(a1)           v(a0)           v(b3)           
--------------------------------------------------------------------------------
0	3.000000e+01	0.000000e+00	0.000000e+00	1.800000e+00	
1	1.000000e+02	0.000000e+00	0.000000e+00	1.800000e+00	

                              *include 22nm_MGK.pm
                              DC transfer characteristic  Tue Nov 29 01:47:25  2022
--------------------------------------------------------------------------------
Index   temp-sweep      v(b2)           v(b1)           v(b0)           
--------------------------------------------------------------------------------
0	3.000000e+01	1.800000e+00	1.800000e+00	0.000000e+00	
1	1.000000e+02	1.800000e+00	1.800000e+00	0.000000e+00	

                              *include 22nm_MGK.pm
                              DC transfer characteristic  Tue Nov 29 01:47:25  2022
--------------------------------------------------------------------------------
Index   temp-sweep      (-v(node1)*i(vd 
--------------------------------------------------------------------------------
0	3.000000e+01	5.487917e-03	
1	1.000000e+02	5.608118e-03	
Doing analysis at TEMP = 27.000000 and TNOM = 27.000000


No. of Data Rows : 2
                              *include 22nm_MGK.pm
                              DC transfer characteristic  Tue Nov 29 01:47:25  2022
--------------------------------------------------------------------------------
Index   temp-sweep      v(node1)        v(a3)           v(a2)           
--------------------------------------------------------------------------------
0	3.000000e+01	1.800000e+00	0.000000e+00	0.000000e+00	
1	1.000000e+02	1.800000e+00	0.000000e+00	0.000000e+00	

                              *include 22nm_MGK.pm
                              DC transfer characteristic  Tue Nov 29 01:47:25  2022
--------------------------------------------------------------------------------
Index   temp-sweep      v(a1)           v(a0)           v(b3)           
--------------------------------------------------------------------------------
0	3.000000e+01	0.000000e+00	0.000000e+00	0.000000e+00	
1	1.000000e+02	0.000000e+00	0.000000e+00	0.000000e+00	

                              *include 22nm_MGK.pm
        Note: Starting dynamic gmin stepping
Note: Dynamic gmin stepping completed
 Reference value :  3.00000e+01
Note: Starting dynamic gmin stepping
Note: Dynamic gmin stepping completed
 Reference value :  3.00000e+01
                      DC transfer characteristic  Tue Nov 29 01:47:25  2022
--------------------------------------------------------------------------------
Index   temp-sweep      v(b2)           v(b1)           v(b0)           
--------------------------------------------------------------------------------
0	3.000000e+01	0.000000e+00	0.000000e+00	1.800000e+00	
1	1.000000e+02	0.000000e+00	0.000000e+00	1.800000e+00	

                              *include 22nm_MGK.pm
                              DC transfer characteristic  Tue Nov 29 01:47:25  2022
--------------------------------------------------------------------------------
Index   temp-sweep      (-v(node1)*i(vd 
--------------------------------------------------------------------------------
0	3.000000e+01	5.804798e-03	
1	1.000000e+02	5.919469e-03	
Doing analysis at TEMP = 27.000000 and TNOM = 27.000000


No. of Data Rows : 2
                              *include 22nm_MGK.pm
                              DC transfer characteristic  Tue Nov 29 01:47:25  2022
--------------------------------------------------------------------------------
Index   temp-sweep      v(node1)        v(a3)           v(a2)           
--------------------------------------------------------------------------------
0	3.000000e+01	1.800000e+00	0.000000e+00	0.000000e+00	
1	1.000000e+02	1.800000e+00	0.000000e+00	0.000000e+00	

                              *include 22nm_MGK.pm
                              DC transfer characteristic  Tue Nov 29 01:47:25  2022
--------------------------------------------------------------------------------
Index   temp-sweep      v(a1)           v(a0)           v(b3)           
--------------------------------------------------------------------------------
0	3.000000e+01	0.000000e+00	0.000000e+00	1.800000e+00	
1	1.000000e+02	0.000000e+00	0.000000e+00	1.800000e+00	

                              *include 22nm_MGK.pm
                              DC transfer characteristic  Tue Nov 29 01:47:25  2022
--------------------------------------------------------------------------------
Index   temp-sweep      v(b2)           v(b1)           v(b0)           
--------------------------------------------------------------------------------
0	3.000000e+01	0.000000e+00	0.000000e+00	1.800000e+00	
1	1.000000e+02	0.000000e+00	0.000000e+00	1.800000e+00	

                              *include 22nm_MGK.pm
                              DC transfer characteristic  Tue Nov 29 01:47:25  2022
--------------------------------------------------------------------------------
Index   temp-sweep      (-v(node1)*i(vd 
--------------------------------------------------------------------------------
0	3.000000e+01	5.646541e-03	
1	1.000000e+02	5.764845e-03	
Doing analysis at TEMP = 27.000000 and TNOM = 27.000000


No. of Data Rows : 2
                              *include 22nm_MGK.pm
                              DC transfer characteristic  Tue Nov 29 01:47:26  2022
--------------------------------------------------------------------------------
Index   temp-sweep      v(node1)        v(a3)           v(a2)           
--------------------------------------------------------------------------------
0	3.000000e+01	1.800000e+00	0.000000e+00	0.000000e+00	
1	1.000000e+02	1.800000e+00	0.000000e+00	0.000000e+00	

               Note: Starting dynamic gmin stepping
Note: Dynamic gmin stepping completed
 Reference value :  3.00000e+01
Note: Starting dynamic gmin stepping
Note: Dynamic gmin stepping completed
 Reference value :  3.00000e+01
               *include 22nm_MGK.pm
                              DC transfer characteristic  Tue Nov 29 01:47:26  2022
--------------------------------------------------------------------------------
Index   temp-sweep      v(a1)           v(a0)           v(b3)           
--------------------------------------------------------------------------------
0	3.000000e+01	0.000000e+00	0.000000e+00	0.000000e+00	
1	1.000000e+02	0.000000e+00	0.000000e+00	0.000000e+00	

                              *include 22nm_MGK.pm
                              DC transfer characteristic  Tue Nov 29 01:47:26  2022
--------------------------------------------------------------------------------
Index   temp-sweep      v(b2)           v(b1)           v(b0)           
--------------------------------------------------------------------------------
0	3.000000e+01	1.800000e+00	0.000000e+00	1.800000e+00	
1	1.000000e+02	1.800000e+00	0.000000e+00	1.800000e+00	

                              *include 22nm_MGK.pm
                              DC transfer characteristic  Tue Nov 29 01:47:26  2022
--------------------------------------------------------------------------------
Index   temp-sweep      (-v(node1)*i(vd 
--------------------------------------------------------------------------------
0	3.000000e+01	5.646543e-03	
1	1.000000e+02	5.764816e-03	
Doing analysis at TEMP = 27.000000 and TNOM = 27.000000


No. of Data Rows : 2
                              *include 22nm_MGK.pm
                              DC transfer characteristic  Tue Nov 29 01:47:26  2022
--------------------------------------------------------------------------------
Index   temp-sweep      v(node1)        v(a3)           v(a2)           
--------------------------------------------------------------------------------
0	3.000000e+01	1.800000e+00	0.000000e+00	0.000000e+00	
1	1.000000e+02	1.800000e+00	0.000000e+00	0.000000e+00	

                              *include 22nm_MGK.pm
                              DC transfer characteristic  Tue Nov 29 01:47:26  2022
--------------------------------------------------------------------------------
Index   temp-sweep      v(a1)           v(a0)           v(b3)           
--------------------------------------------------------------------------------
0	3.000000e+01	0.000000e+00	0.000000e+00	1.800000e+00	
1	1.000000e+02	0.000000e+00	0.000000e+00	1.800000e+00	

                              *include 22nm_MGK.pm
                              DC transfer characteristic  Tue Nov 29 01:47:26  2022
--------------------------------------------------------------------------------
Index   temp-sweep      v(b2)           v(b1)           v(b0)           
--------------------------------------------------------------------------------
0	3.000000e+01	1.800000e+00	0.000000e+00	1.800000e+00	
1	1.000000e+02	1.800000e+00	0.000000e+00	1.800000e+00	

                              *include 22nm_MGK.pm
                              DC transfer characteristic  Tue Nov 29 01:47:26  2022
--------------------------------------------------------------------------------
Index   temp-sweep      (-v(node1)*i(vd 
--------------------------------------------------------------------------------
0	3.000000e+01	5.488286e-03	
1	1.000000e+02	5.610192e-03	
Doing analysis at TEMP = 27.000000 and TNOM = 27.000000

Note: Dynamic gmin stepping completed
 Reference value :  3.00000e+01
nored.

No. of Data Rows : 2
                              *include 22nm_MGK.pm
                              DC transfer characteristic  Tue Nov 29 01:47:26  2022
--------------------------------------------------------------------------------
Index   temp-sweep      v(node1)        v(a3)           v(a2)           
--------------------------------------------------------------------------------
0	3.000000e+01	1.800000e+00	0.000000e+00	0.000000e+00	
1	1.000000e+02	1.800000e+00	0.000000e+00	0.000000e+00	

                              *include 22nm_MGK.pm
                              DC transfer characteristic  Tue Nov 29 01:47:26  2022
--------------------------------------------------------------------------------
Index   temp-sweep      v(a1)           v(a0)           v(b3)           
--------------------------------------------------------------------------------
0	3.000000e+01	0.000000e+00	0.000000e+00	0.000000e+00	
1	1.000000e+02	0.000000e+00	0.000000e+00	0.000000e+00	

                              *include 22nm_MGK.pm
                              DC transfer characteristic  Tue Nov 29 01:47:26  2022
--------------------------------------------------------------------------------
Index   temp-sweep      v(b2)           v(b1)           v(b0)           
--------------------------------------------------------------------------------
0	3.000000e+01	0.000000e+00	1.800000e+00	1.800000e+00	
1	1.000000e+02	0.000000e+00	1.800000e+00	1.800000e+00	

                              *include 22nm_MGK.pm
                              DC transfer characteristic  Tue Nov 29 01:47:26  2022
--------------------------------------------------------------------------------
Index   temp-sweep      (-v(node1)*i(vd 
--------------------------------------------------------------------------------
0	3.000000e+01	5.646515e-03	
1	1.000000e+02	5.765030e-03	
Doing analysis at TEMP = 27.000000 and TNOM = 27.000000


No. of Data Rows : 2
                              *include 22nm_MGK.pm
                              DC transfer characteristic  Tue Nov 29 01:47:27  2022
--------------------------------------------------------------------------------
Index   temp-sweep      v(node1)        v(a3)           v(a2)           
--------------------------------------------------------------------------------
0	3.000000e+01	1.800000e+00	0.000000e+00	0.000000e+00	
1	1.000000e+02	1.800000e+00	0.000000e+00	0.000000e+00	

                              *include 22nm_MGK.pm
                              DC transfer characteristic  Tue Nov 29 01:47:27  2022
--------------------------------------------------------------------------------
Index   temp-sweep      v(a1)           v(a0)           v(b3)           
--------------------------------------------------------------------------------
0	3.000000e+01	0.000000e+00	0.000000e+00	1.800000e+00	
1	1.000000e+02	0.000000e+00	0.000000e+00	1.800000e+00	

                              *include 22nm_MGK.pm
                              DC transfer characteristic  Tue Nov 29 01:47:27  2022
--------------------------------------------------------------------------------
Index   temp-sweep      v(b2)           v(b1)           v(b0)           
--------------------------------------------------------------------------------
0	3.000000e+01	0.000000e+00	1.800000e+00	1.800000e+00	
1	1.000000e+02	0.000000e+00	1.800000e+00	1.800000e+00	

                              *include 22nm_MGK.pm
                              DC transfer characteristic  Tue Nov 29 01:47:27  2022
--------------------------------------------------------------------------------
Index   temp-sweep      (-v(node1)*i(vd 
-----------------------------------------------------Note: Starting dynamic gmin stepping
Note: Dynamic gmin stepping completed
 Reference value :  3.00000e+01
Note: Starting dynamic gmin stepping
Note: Dynamic gmin stepping completed
 Reference value :  3.00000e+01
---------------------------
0	3.000000e+01	5.488258e-03	
1	1.000000e+02	5.610406e-03	
Doing analysis at TEMP = 27.000000 and TNOM = 27.000000


No. of Data Rows : 2
                              *include 22nm_MGK.pm
                              DC transfer characteristic  Tue Nov 29 01:47:27  2022
--------------------------------------------------------------------------------
Index   temp-sweep      v(node1)        v(a3)           v(a2)           
--------------------------------------------------------------------------------
0	3.000000e+01	1.800000e+00	0.000000e+00	0.000000e+00	
1	1.000000e+02	1.800000e+00	0.000000e+00	0.000000e+00	

                              *include 22nm_MGK.pm
                              DC transfer characteristic  Tue Nov 29 01:47:27  2022
--------------------------------------------------------------------------------
Index   temp-sweep      v(a1)           v(a0)           v(b3)           
--------------------------------------------------------------------------------
0	3.000000e+01	0.000000e+00	0.000000e+00	0.000000e+00	
1	1.000000e+02	0.000000e+00	0.000000e+00	0.000000e+00	

                              *include 22nm_MGK.pm
                              DC transfer characteristic  Tue Nov 29 01:47:27  2022
--------------------------------------------------------------------------------
Index   temp-sweep      v(b2)           v(b1)           v(b0)           
--------------------------------------------------------------------------------
0	3.000000e+01	1.800000e+00	1.800000e+00	1.800000e+00	
1	1.000000e+02	1.800000e+00	1.800000e+00	1.800000e+00	

                              *include 22nm_MGK.pm
                              DC transfer characteristic  Tue Nov 29 01:47:27  2022
--------------------------------------------------------------------------------
Index   temp-sweep      (-v(node1)*i(vd 
--------------------------------------------------------------------------------
0	3.000000e+01	5.488260e-03	
1	1.000000e+02	5.610376e-03	
Doing analysis at TEMP = 27.000000 and TNOM = 27.000000


No. of Data Rows : 2
                              *include 22nm_MGK.pm
                              DC transfer characteristic  Tue Nov 29 01:47:27  2022
--------------------------------------------------------------------------------
Index   temp-sweep      v(node1)        v(a3)           v(a2)           
--------------------------------------------------------------------------------
0	3.000000e+01	1.800000e+00	0.000000e+00	0.000000e+00	
1	1.000000e+02	1.800000e+00	0.000000e+00	0.000000e+00	

                              *include 22nm_MGK.pm
                              DC transfer characteristic  Tue Nov 29 01:47:27  2022
--------------------------------------------------------------------------------
Index   temp-sweep      v(a1)           v(a0)           v(b3)           
--------------------------------------------------------------------------------
0	3.000000e+01	0.000000e+00	0.000000e+00	1.800000e+00	
1	1.000000e+02	0.000000e+00	0.000000e+00	1.800000e+00	

                              *include 22nm_MGK.pm
                              DC transfer characteristic  Tue Nov 29 01:47:27  2022
--------------------------------------------------------------------------------
Index   temp-sweep      v(b2)           v(b1)     Note: Starting dynamic gmin stepping
Note: Dynamic gmin stepping completed
 Reference value :  3.00000e+01
Note: Starting dynamic gmin stepping
Note: Dynamic gmin stepping completed
 Reference value :  3.00000e+01
      v(b0)           
--------------------------------------------------------------------------------
0	3.000000e+01	1.800000e+00	1.800000e+00	1.800000e+00	
1	1.000000e+02	1.800000e+00	1.800000e+00	1.800000e+00	

                              *include 22nm_MGK.pm
                              DC transfer characteristic  Tue Nov 29 01:47:27  2022
--------------------------------------------------------------------------------
Index   temp-sweep      (-v(node1)*i(vd 
--------------------------------------------------------------------------------
0	3.000000e+01	5.330003e-03	
1	1.000000e+02	5.455752e-03	
Doing analysis at TEMP = 27.000000 and TNOM = 27.000000


No. of Data Rows : 2
                              *include 22nm_MGK.pm
                              DC transfer characteristic  Tue Nov 29 01:47:27  2022
--------------------------------------------------------------------------------
Index   temp-sweep      v(node1)        v(a3)           v(a2)           
--------------------------------------------------------------------------------
0	3.000000e+01	1.800000e+00	1.800000e+00	0.000000e+00	
1	1.000000e+02	1.800000e+00	1.800000e+00	0.000000e+00	

                              *include 22nm_MGK.pm
                              DC transfer characteristic  Tue Nov 29 01:47:27  2022
--------------------------------------------------------------------------------
Index   temp-sweep      v(a1)           v(a0)           v(b3)           
--------------------------------------------------------------------------------
0	3.000000e+01	0.000000e+00	0.000000e+00	0.000000e+00	
1	1.000000e+02	0.000000e+00	0.000000e+00	0.000000e+00	

                              *include 22nm_MGK.pm
                              DC transfer characteristic  Tue Nov 29 01:47:27  2022
--------------------------------------------------------------------------------
Index   temp-sweep      v(b2)           v(b1)           v(b0)           
--------------------------------------------------------------------------------
0	3.000000e+01	0.000000e+00	0.000000e+00	0.000000e+00	
1	1.000000e+02	0.000000e+00	0.000000e+00	0.000000e+00	

                              *include 22nm_MGK.pm
                              DC transfer characteristic  Tue Nov 29 01:47:27  2022
--------------------------------------------------------------------------------
Index   temp-sweep      (-v(node1)*i(vd 
--------------------------------------------------------------------------------
0	3.000000e+01	5.895597e-03	
1	1.000000e+02	6.002298e-03	
Doing analysis at TEMP = 27.000000 and TNOM = 27.000000


No. of Data Rows : 2
                              *include 22nm_MGK.pm
                              DC transfer characteristic  Tue Nov 29 01:47:28  2022
--------------------------------------------------------------------------------
Index   temp-sweep      v(node1)        v(a3)           v(a2)           
--------------------------------------------------------------------------------
0	3.000000e+01	1.800000e+00	1.800000e+00	0.000000e+00	
1	1.000000e+02	1.800000e+00	1.800000e+00	0.000000e+00	

                              *include 22nm_MGK.pm
                              DC transfer characteristic  Tue Nov 29 01:47:28  2022
--------------------------------------------------------------------------------
Index Note: Starting dynamic gmin stepping
Note: Dynamic gmin stepping completed
 Reference value :  3.00000e+01
Note: Starting dynamic gmin stepping
Note: Dynamic gmin stepping completed
 Reference value :  3.00000e+01
  temp-sweep      v(a1)           v(a0)           v(b3)           
--------------------------------------------------------------------------------
0	3.000000e+01	0.000000e+00	0.000000e+00	1.800000e+00	
1	1.000000e+02	0.000000e+00	0.000000e+00	1.800000e+00	

                              *include 22nm_MGK.pm
                              DC transfer characteristic  Tue Nov 29 01:47:28  2022
--------------------------------------------------------------------------------
Index   temp-sweep      v(b2)           v(b1)           v(b0)           
--------------------------------------------------------------------------------
0	3.000000e+01	0.000000e+00	0.000000e+00	0.000000e+00	
1	1.000000e+02	0.000000e+00	0.000000e+00	0.000000e+00	

                              *include 22nm_MGK.pm
                              DC transfer characteristic  Tue Nov 29 01:47:28  2022
--------------------------------------------------------------------------------
Index   temp-sweep      (-v(node1)*i(vd 
--------------------------------------------------------------------------------
0	3.000000e+01	5.875010e-03	
1	1.000000e+02	5.999970e-03	
Doing analysis at TEMP = 27.000000 and TNOM = 27.000000


No. of Data Rows : 2
                              *include 22nm_MGK.pm
                              DC transfer characteristic  Tue Nov 29 01:47:28  2022
--------------------------------------------------------------------------------
Index   temp-sweep      v(node1)        v(a3)           v(a2)           
--------------------------------------------------------------------------------
0	3.000000e+01	1.800000e+00	1.800000e+00	0.000000e+00	
1	1.000000e+02	1.800000e+00	1.800000e+00	0.000000e+00	

                              *include 22nm_MGK.pm
                              DC transfer characteristic  Tue Nov 29 01:47:28  2022
--------------------------------------------------------------------------------
Index   temp-sweep      v(a1)           v(a0)           v(b3)           
--------------------------------------------------------------------------------
0	3.000000e+01	0.000000e+00	0.000000e+00	0.000000e+00	
1	1.000000e+02	0.000000e+00	0.000000e+00	0.000000e+00	

                              *include 22nm_MGK.pm
                              DC transfer characteristic  Tue Nov 29 01:47:28  2022
--------------------------------------------------------------------------------
Index   temp-sweep      v(b2)           v(b1)           v(b0)           
--------------------------------------------------------------------------------
0	3.000000e+01	1.800000e+00	0.000000e+00	0.000000e+00	
1	1.000000e+02	1.800000e+00	0.000000e+00	0.000000e+00	

                              *include 22nm_MGK.pm
                              DC transfer characteristic  Tue Nov 29 01:47:28  2022
--------------------------------------------------------------------------------
Index   temp-sweep      (-v(node1)*i(vd 
--------------------------------------------------------------------------------
0	3.000000e+01	5.943043e-03	
1	1.000000e+02	6.070495e-03	
Doing analysis at TEMP = 27.000000 and TNOM = 27.000000


No. of Data Rows : 2
                              *include 22nm_MGK.pm
                              DC transfer characteristic  Tue Nov 29 01:47:28  2022
-------------------------------------------Note: Starting dynamic gmin stepping
Note: Dynamic gmin stepping completed
 Reference value :  3.00000e+01
-------------------------------------
Index   temp-sweep      v(node1)        v(a3)           v(a2)           
--------------------------------------------------------------------------------
0	3.000000e+01	1.800000e+00	1.800000e+00	0.000000e+00	
1	1.000000e+02	1.800000e+00	1.800000e+00	0.000000e+00	

                              *include 22nm_MGK.pm
                              DC transfer characteristic  Tue Nov 29 01:47:28  2022
--------------------------------------------------------------------------------
Index   temp-sweep      v(a1)           v(a0)           v(b3)           
--------------------------------------------------------------------------------
0	3.000000e+01	0.000000e+00	0.000000e+00	1.800000e+00	
1	1.000000e+02	0.000000e+00	0.000000e+00	1.800000e+00	

                              *include 22nm_MGK.pm
                              DC transfer characteristic  Tue Nov 29 01:47:28  2022
--------------------------------------------------------------------------------
Index   temp-sweep      v(b2)           v(b1)           v(b0)           
--------------------------------------------------------------------------------
0	3.000000e+01	1.800000e+00	0.000000e+00	0.000000e+00	
1	1.000000e+02	1.800000e+00	0.000000e+00	0.000000e+00	

                              *include 22nm_MGK.pm
                              DC transfer characteristic  Tue Nov 29 01:47:28  2022
--------------------------------------------------------------------------------
Index   temp-sweep      (-v(node1)*i(vd 
--------------------------------------------------------------------------------
0	3.000000e+01	5.922310e-03	
1	1.000000e+02	6.068193e-03	
Doing analysis at TEMP = 27.000000 and TNOM = 27.000000


No. of Data Rows : 2
                              *include 22nm_MGK.pm
                              DC transfer characteristic  Tue Nov 29 01:47:29  2022
--------------------------------------------------------------------------------
Index   temp-sweep      v(node1)        v(a3)           v(a2)           
--------------------------------------------------------------------------------
0	3.000000e+01	1.800000e+00	1.800000e+00	0.000000e+00	
1	1.000000e+02	1.800000e+00	1.800000e+00	0.000000e+00	

                              *include 22nm_MGK.pm
                              DC transfer characteristic  Tue Nov 29 01:47:29  2022
--------------------------------------------------------------------------------
Index   temp-sweep      v(a1)           v(a0)           v(b3)           
--------------------------------------------------------------------------------
0	3.000000e+01	0.000000e+00	0.000000e+00	0.000000e+00	
1	1.000000e+02	0.000000e+00	0.000000e+00	0.000000e+00	

                              *include 22nm_MGK.pm
                              DC transfer characteristic  Tue Nov 29 01:47:29  2022
--------------------------------------------------------------------------------
Index   temp-sweep      v(b2)           v(b1)           v(b0)           
--------------------------------------------------------------------------------
0	3.000000e+01	0.000000e+00	1.800000e+00	0.000000e+00	
1	1.000000e+02	0.000000e+00	1.800000e+00	0.000000e+00	

                              *include 22nm_MGK.pm
                              DC transfer characteristic  Tue Nov 29 01:47:29  2022
--------------------------------------------------------------------------------
Index   temp-sweep      (-v(node1)*i(vd 
--------------------------------------------------------------------------------
0	3.000000e+01	6.003658e-03	
1	1.000000e+02	6.130864e-03	
Doing analysis at TEMP = 27.000000 and TNOM = 27.000000

Note: Dynamic gmin stepping completed
 Reference value :  3.00000e+01
Note: Starting dynamic gmin stepping
Note: Dynamic gmin stepping completed
 Reference value :  3.00000e+01
dtox ignored.

No. of Data Rows : 2
                              *include 22nm_MGK.pm
                              DC transfer characteristic  Tue Nov 29 01:47:29  2022
--------------------------------------------------------------------------------
Index   temp-sweep      v(node1)        v(a3)           v(a2)           
--------------------------------------------------------------------------------
0	3.000000e+01	1.800000e+00	1.800000e+00	0.000000e+00	
1	1.000000e+02	1.800000e+00	1.800000e+00	0.000000e+00	

                              *include 22nm_MGK.pm
                              DC transfer characteristic  Tue Nov 29 01:47:29  2022
--------------------------------------------------------------------------------
Index   temp-sweep      v(a1)           v(a0)           v(b3)           
--------------------------------------------------------------------------------
0	3.000000e+01	0.000000e+00	0.000000e+00	1.800000e+00	
1	1.000000e+02	0.000000e+00	0.000000e+00	1.800000e+00	

                              *include 22nm_MGK.pm
                              DC transfer characteristic  Tue Nov 29 01:47:29  2022
--------------------------------------------------------------------------------
Index   temp-sweep      v(b2)           v(b1)           v(b0)           
--------------------------------------------------------------------------------
0	3.000000e+01	0.000000e+00	1.800000e+00	0.000000e+00	
1	1.000000e+02	0.000000e+00	1.800000e+00	0.000000e+00	

                              *include 22nm_MGK.pm
                              DC transfer characteristic  Tue Nov 29 01:47:29  2022
--------------------------------------------------------------------------------
Index   temp-sweep      (-v(node1)*i(vd 
--------------------------------------------------------------------------------
0	3.000000e+01	5.982936e-03	
1	1.000000e+02	6.128540e-03	
Doing analysis at TEMP = 27.000000 and TNOM = 27.000000


No. of Data Rows : 2
                              *include 22nm_MGK.pm
                              DC transfer characteristic  Tue Nov 29 01:47:29  2022
--------------------------------------------------------------------------------
Index   temp-sweep      v(node1)        v(a3)           v(a2)           
--------------------------------------------------------------------------------
0	3.000000e+01	1.800000e+00	1.800000e+00	0.000000e+00	
1	1.000000e+02	1.800000e+00	1.800000e+00	0.000000e+00	

                              *include 22nm_MGK.pm
                              DC transfer characteristic  Tue Nov 29 01:47:29  2022
--------------------------------------------------------------------------------
Index   temp-sweep      v(a1)           v(a0)           v(b3)           
--------------------------------------------------------------------------------
0	3.000000e+01	0.000000e+00	0.000000e+00	0.000000e+00	
1	1.000000e+02	0.000000e+00	0.000000e+00	0.000000e+00	

                              *include 22nm_MGK.pm
                              DC transfer characteristic  Tue Nov 29 01:47:29  2022
--------------------------------------------------------------------------------
Index   temp-sweep      v(b2)           v(b1)           v(b0)           
--------------------------------------------------------------------------------
0	3.000000e+01	1.800000e+00	1.800000e+00	0.000000e+00	
1	1.000000e+02	1.800000e+00	1.800000e+00	0.00000Note: Starting dynamic gmin stepping
Note: Dynamic gmin stepping completed
 Reference value :  3.00000e+01
Note: Starting dynamic gmin stepping
Note: Dynamic gmin stepping completed
 Reference value :  3.00000e+01
0e+00	

                              *include 22nm_MGK.pm
                              DC transfer characteristic  Tue Nov 29 01:47:29  2022
--------------------------------------------------------------------------------
Index   temp-sweep      (-v(node1)*i(vd 
--------------------------------------------------------------------------------
0	3.000000e+01	6.050947e-03	
1	1.000000e+02	6.199164e-03	
Doing analysis at TEMP = 27.000000 and TNOM = 27.000000


No. of Data Rows : 2
                              *include 22nm_MGK.pm
                              DC transfer characteristic  Tue Nov 29 01:47:29  2022
--------------------------------------------------------------------------------
Index   temp-sweep      v(node1)        v(a3)           v(a2)           
--------------------------------------------------------------------------------
0	3.000000e+01	1.800000e+00	1.800000e+00	0.000000e+00	
1	1.000000e+02	1.800000e+00	1.800000e+00	0.000000e+00	

                              *include 22nm_MGK.pm
                              DC transfer characteristic  Tue Nov 29 01:47:29  2022
--------------------------------------------------------------------------------
Index   temp-sweep      v(a1)           v(a0)           v(b3)           
--------------------------------------------------------------------------------
0	3.000000e+01	0.000000e+00	0.000000e+00	1.800000e+00	
1	1.000000e+02	0.000000e+00	0.000000e+00	1.800000e+00	

                              *include 22nm_MGK.pm
                              DC transfer characteristic  Tue Nov 29 01:47:29  2022
--------------------------------------------------------------------------------
Index   temp-sweep      v(b2)           v(b1)           v(b0)           
--------------------------------------------------------------------------------
0	3.000000e+01	1.800000e+00	1.800000e+00	0.000000e+00	
1	1.000000e+02	1.800000e+00	1.800000e+00	0.000000e+00	

                              *include 22nm_MGK.pm
                              DC transfer characteristic  Tue Nov 29 01:47:29  2022
--------------------------------------------------------------------------------
Index   temp-sweep      (-v(node1)*i(vd 
--------------------------------------------------------------------------------
0	3.000000e+01	6.030078e-03	
1	1.000000e+02	6.196865e-03	
Doing analysis at TEMP = 27.000000 and TNOM = 27.000000


No. of Data Rows : 2
                              *include 22nm_MGK.pm
                              DC transfer characteristic  Tue Nov 29 01:47:30  2022
--------------------------------------------------------------------------------
Index   temp-sweep      v(node1)        v(a3)           v(a2)           
--------------------------------------------------------------------------------
0	3.000000e+01	1.800000e+00	1.800000e+00	0.000000e+00	
1	1.000000e+02	1.800000e+00	1.800000e+00	0.000000e+00	

                              *include 22nm_MGK.pm
                              DC transfer characteristic  Tue Nov 29 01:47:30  2022
--------------------------------------------------------------------------------
Index   temp-sweep      v(a1)           v(a0)           v(b3)           
--------------------------------------------------------------------------------
0	3.000000e+01	0.000000e+00	0.000000e+00	0.000000e+00	
1	1.Note: Starting dynamic gmin stepping
Note: Dynamic gmin stepping completed
 Reference value :  3.00000e+01
Note: Starting dynamic gmin stepping
Note: Dynamic gmin stepping completed
 Reference value :  3.00000e+01
000000e+02	0.000000e+00	0.000000e+00	0.000000e+00	

                              *include 22nm_MGK.pm
                              DC transfer characteristic  Tue Nov 29 01:47:30  2022
--------------------------------------------------------------------------------
Index   temp-sweep      v(b2)           v(b1)           v(b0)           
--------------------------------------------------------------------------------
0	3.000000e+01	0.000000e+00	0.000000e+00	1.800000e+00	
1	1.000000e+02	0.000000e+00	0.000000e+00	1.800000e+00	

                              *include 22nm_MGK.pm
                              DC transfer characteristic  Tue Nov 29 01:47:30  2022
--------------------------------------------------------------------------------
Index   temp-sweep      (-v(node1)*i(vd 
--------------------------------------------------------------------------------
0	3.000000e+01	5.939417e-03	
1	1.000000e+02	6.068752e-03	
Doing analysis at TEMP = 27.000000 and TNOM = 27.000000


No. of Data Rows : 2
                              *include 22nm_MGK.pm
                              DC transfer characteristic  Tue Nov 29 01:47:30  2022
--------------------------------------------------------------------------------
Index   temp-sweep      v(node1)        v(a3)           v(a2)           
--------------------------------------------------------------------------------
0	3.000000e+01	1.800000e+00	1.800000e+00	0.000000e+00	
1	1.000000e+02	1.800000e+00	1.800000e+00	0.000000e+00	

                              *include 22nm_MGK.pm
                              DC transfer characteristic  Tue Nov 29 01:47:30  2022
--------------------------------------------------------------------------------
Index   temp-sweep      v(a1)           v(a0)           v(b3)           
--------------------------------------------------------------------------------
0	3.000000e+01	0.000000e+00	0.000000e+00	1.800000e+00	
1	1.000000e+02	0.000000e+00	0.000000e+00	1.800000e+00	

                              *include 22nm_MGK.pm
                              DC transfer characteristic  Tue Nov 29 01:47:30  2022
--------------------------------------------------------------------------------
Index   temp-sweep      v(b2)           v(b1)           v(b0)           
--------------------------------------------------------------------------------
0	3.000000e+01	0.000000e+00	0.000000e+00	1.800000e+00	
1	1.000000e+02	0.000000e+00	0.000000e+00	1.800000e+00	

                              *include 22nm_MGK.pm
                              DC transfer characteristic  Tue Nov 29 01:47:30  2022
--------------------------------------------------------------------------------
Index   temp-sweep      (-v(node1)*i(vd 
--------------------------------------------------------------------------------
0	3.000000e+01	5.918696e-03	
1	1.000000e+02	6.066388e-03	
Doing analysis at TEMP = 27.000000 and TNOM = 27.000000


No. of Data Rows : 2
                              *include 22nm_MGK.pm
                              DC transfer characteristic  Tue Nov 29 01:47:30  2022
--------------------------------------------------------------------------------
Index   temp-sweep      v(node1)        v(a3)           v(a2)           
--------------------------------------------------------------------------------
0	3.000000e+01	Note: Starting dynamic gmin stepping
Note: Dynamic gmin stepping completed
 Reference value :  3.00000e+01
Note: Starting dynamic gmin stepping
Note: Dynamic gmin stepping completed
 Reference value :  3.00000e+01
1.800000e+00	1.800000e+00	0.000000e+00	
1	1.000000e+02	1.800000e+00	1.800000e+00	0.000000e+00	

                              *include 22nm_MGK.pm
                              DC transfer characteristic  Tue Nov 29 01:47:30  2022
--------------------------------------------------------------------------------
Index   temp-sweep      v(a1)           v(a0)           v(b3)           
--------------------------------------------------------------------------------
0	3.000000e+01	0.000000e+00	0.000000e+00	0.000000e+00	
1	1.000000e+02	0.000000e+00	0.000000e+00	0.000000e+00	

                              *include 22nm_MGK.pm
                              DC transfer characteristic  Tue Nov 29 01:47:30  2022
--------------------------------------------------------------------------------
Index   temp-sweep      v(b2)           v(b1)           v(b0)           
--------------------------------------------------------------------------------
0	3.000000e+01	1.800000e+00	0.000000e+00	1.800000e+00	
1	1.000000e+02	1.800000e+00	0.000000e+00	1.800000e+00	

                              *include 22nm_MGK.pm
                              DC transfer characteristic  Tue Nov 29 01:47:30  2022
--------------------------------------------------------------------------------
Index   temp-sweep      (-v(node1)*i(vd 
--------------------------------------------------------------------------------
0	3.000000e+01	5.986726e-03	
1	1.000000e+02	6.136960e-03	
Doing analysis at TEMP = 27.000000 and TNOM = 27.000000


No. of Data Rows : 2
                              *include 22nm_MGK.pm
                              DC transfer characteristic  Tue Nov 29 01:47:31  2022
--------------------------------------------------------------------------------
Index   temp-sweep      v(node1)        v(a3)           v(a2)           
--------------------------------------------------------------------------------
0	3.000000e+01	1.800000e+00	1.800000e+00	0.000000e+00	
1	1.000000e+02	1.800000e+00	1.800000e+00	0.000000e+00	

                              *include 22nm_MGK.pm
                              DC transfer characteristic  Tue Nov 29 01:47:31  2022
--------------------------------------------------------------------------------
Index   temp-sweep      v(a1)           v(a0)           v(b3)           
--------------------------------------------------------------------------------
0	3.000000e+01	0.000000e+00	0.000000e+00	1.800000e+00	
1	1.000000e+02	0.000000e+00	0.000000e+00	1.800000e+00	

                              *include 22nm_MGK.pm
                              DC transfer characteristic  Tue Nov 29 01:47:31  2022
--------------------------------------------------------------------------------
Index   temp-sweep      v(b2)           v(b1)           v(b0)           
--------------------------------------------------------------------------------
0	3.000000e+01	1.800000e+00	0.000000e+00	1.800000e+00	
1	1.000000e+02	1.800000e+00	0.000000e+00	1.800000e+00	

                              *include 22nm_MGK.pm
                              DC transfer characteristic  Tue Nov 29 01:47:31  2022
--------------------------------------------------------------------------------
Index   temp-sweep      (-v(node1)*i(vd 
--------------------------------------------------------------------------------
0	3.000000e+01	5.965858e-03	
1	1.000000e+02	6.134622e-03	
Doing analysis at TEMP = 27.000000 and TNOM = 27.000000

Note: Dynamic gmin stepping completed
 Reference value :  3.00000e+01
n and toxe != toxp + dtox; dtox ignored.

No. of Data Rows : 2
                              *include 22nm_MGK.pm
                              DC transfer characteristic  Tue Nov 29 01:47:31  2022
--------------------------------------------------------------------------------
Index   temp-sweep      v(node1)        v(a3)           v(a2)           
--------------------------------------------------------------------------------
0	3.000000e+01	1.800000e+00	1.800000e+00	0.000000e+00	
1	1.000000e+02	1.800000e+00	1.800000e+00	0.000000e+00	

                              *include 22nm_MGK.pm
                              DC transfer characteristic  Tue Nov 29 01:47:31  2022
--------------------------------------------------------------------------------
Index   temp-sweep      v(a1)           v(a0)           v(b3)           
--------------------------------------------------------------------------------
0	3.000000e+01	0.000000e+00	0.000000e+00	0.000000e+00	
1	1.000000e+02	0.000000e+00	0.000000e+00	0.000000e+00	

                              *include 22nm_MGK.pm
                              DC transfer characteristic  Tue Nov 29 01:47:31  2022
--------------------------------------------------------------------------------
Index   temp-sweep      v(b2)           v(b1)           v(b0)           
--------------------------------------------------------------------------------
0	3.000000e+01	0.000000e+00	1.800000e+00	1.800000e+00	
1	1.000000e+02	0.000000e+00	1.800000e+00	1.800000e+00	

                              *include 22nm_MGK.pm
                              DC transfer characteristic  Tue Nov 29 01:47:31  2022
--------------------------------------------------------------------------------
Index   temp-sweep      (-v(node1)*i(vd 
--------------------------------------------------------------------------------
0	3.000000e+01	6.047556e-03	
1	1.000000e+02	6.197581e-03	
Doing analysis at TEMP = 27.000000 and TNOM = 27.000000


No. of Data Rows : 2
                              *include 22nm_MGK.pm
                              DC transfer characteristic  Tue Nov 29 01:47:31  2022
--------------------------------------------------------------------------------
Index   temp-sweep      v(node1)        v(a3)           v(a2)           
--------------------------------------------------------------------------------
0	3.000000e+01	1.800000e+00	1.800000e+00	0.000000e+00	
1	1.000000e+02	1.800000e+00	1.800000e+00	0.000000e+00	

                              *include 22nm_MGK.pm
                              DC transfer characteristic  Tue Nov 29 01:47:31  2022
--------------------------------------------------------------------------------
Index   temp-sweep      v(a1)           v(a0)           v(b3)           
--------------------------------------------------------------------------------
0	3.000000e+01	0.000000e+00	0.000000e+00	1.800000e+00	
1	1.000000e+02	0.000000e+00	0.000000e+00	1.800000e+00	

                              *include 22nm_MGK.pm
                              DC transfer characteristic  Tue Nov 29 01:47:31  2022
--------------------------------------------------------------------------------
Index   temp-sweep      v(b2)           v(b1)           v(b0)           
--------------------------------------------------------------------------------
0	3.000000e+01	0.000000e+00	1.800000e+00	1.800000e+00	
1	1.000000e+02	0.000000e+00	1.800000e+00	1.800000e+00	

                              *include 22nm_MGK.pm
                              DC transfer characteristic  Tue Nov 29 01:47:31  2022
---------------------------------------------------------------Note: Starting dynamic gmin stepping
Note: Dynamic gmin stepping completed
 Reference value :  3.00000e+01
Note: Starting dynamic gmin stepping
Note: Dynamic gmin stepping completed
 Reference value :  3.00000e+01
-----------------
Index   temp-sweep      (-v(node1)*i(vd 
--------------------------------------------------------------------------------
0	3.000000e+01	6.026699e-03	
1	1.000000e+02	6.195217e-03	
Doing analysis at TEMP = 27.000000 and TNOM = 27.000000


No. of Data Rows : 2
                              *include 22nm_MGK.pm
                              DC transfer characteristic  Tue Nov 29 01:47:31  2022
--------------------------------------------------------------------------------
Index   temp-sweep      v(node1)        v(a3)           v(a2)           
--------------------------------------------------------------------------------
0	3.000000e+01	1.800000e+00	1.800000e+00	0.000000e+00	
1	1.000000e+02	1.800000e+00	1.800000e+00	0.000000e+00	

                              *include 22nm_MGK.pm
                              DC transfer characteristic  Tue Nov 29 01:47:31  2022
--------------------------------------------------------------------------------
Index   temp-sweep      v(a1)           v(a0)           v(b3)           
--------------------------------------------------------------------------------
0	3.000000e+01	0.000000e+00	0.000000e+00	0.000000e+00	
1	1.000000e+02	0.000000e+00	0.000000e+00	0.000000e+00	

                              *include 22nm_MGK.pm
                              DC transfer characteristic  Tue Nov 29 01:47:31  2022
--------------------------------------------------------------------------------
Index   temp-sweep      v(b2)           v(b1)           v(b0)           
--------------------------------------------------------------------------------
0	3.000000e+01	1.800000e+00	1.800000e+00	1.800000e+00	
1	1.000000e+02	1.800000e+00	1.800000e+00	1.800000e+00	

                              *include 22nm_MGK.pm
                              DC transfer characteristic  Tue Nov 29 01:47:31  2022
--------------------------------------------------------------------------------
Index   temp-sweep      (-v(node1)*i(vd 
--------------------------------------------------------------------------------
0	3.000000e+01	6.094708e-03	
1	1.000000e+02	6.265892e-03	
Doing analysis at TEMP = 27.000000 and TNOM = 27.000000


No. of Data Rows : 2
                              *include 22nm_MGK.pm
                              DC transfer characteristic  Tue Nov 29 01:47:32  2022
--------------------------------------------------------------------------------
Index   temp-sweep      v(node1)        v(a3)           v(a2)           
--------------------------------------------------------------------------------
0	3.000000e+01	1.800000e+00	1.800000e+00	0.000000e+00	
1	1.000000e+02	1.800000e+00	1.800000e+00	0.000000e+00	

                              *include 22nm_MGK.pm
                              DC transfer characteristic  Tue Nov 29 01:47:32  2022
--------------------------------------------------------------------------------
Index   temp-sweep      v(a1)           v(a0)           v(b3)           
--------------------------------------------------------------------------------
0	3.000000e+01	0.000000e+00	0.000000e+00	1.800000e+00	
1	1.000000e+02	0.000000e+00	0.000000e+00	1.800000e+00	

                              *include 22nm_MGK.pm
                              DC transfer characteristic  Tue Nov 29 01:47:32  2022
-------------------Note: Starting dynamic gmin stepping
Note: Dynamic gmin stepping completed
 Reference value :  3.00000e+01
Note: Starting dynamic gmin stepping
Note: Dynamic gmin stepping completed
 Reference value :  3.00000e+01
-------------------------------------------------------------
Index   temp-sweep      v(b2)           v(b1)           v(b0)           
--------------------------------------------------------------------------------
0	3.000000e+01	1.800000e+00	1.800000e+00	1.800000e+00	
1	1.000000e+02	1.800000e+00	1.800000e+00	1.800000e+00	

                              *include 22nm_MGK.pm
                              DC transfer characteristic  Tue Nov 29 01:47:32  2022
--------------------------------------------------------------------------------
Index   temp-sweep      (-v(node1)*i(vd 
--------------------------------------------------------------------------------
0	3.000000e+01	6.073704e-03	
1	1.000000e+02	6.263553e-03	
Doing analysis at TEMP = 27.000000 and TNOM = 27.000000


No. of Data Rows : 2
                              *include 22nm_MGK.pm
                              DC transfer characteristic  Tue Nov 29 01:47:32  2022
--------------------------------------------------------------------------------
Index   temp-sweep      v(node1)        v(a3)           v(a2)           
--------------------------------------------------------------------------------
0	3.000000e+01	1.800000e+00	0.000000e+00	1.800000e+00	
1	1.000000e+02	1.800000e+00	0.000000e+00	1.800000e+00	

                              *include 22nm_MGK.pm
                              DC transfer characteristic  Tue Nov 29 01:47:32  2022
--------------------------------------------------------------------------------
Index   temp-sweep      v(a1)           v(a0)           v(b3)           
--------------------------------------------------------------------------------
0	3.000000e+01	0.000000e+00	0.000000e+00	0.000000e+00	
1	1.000000e+02	0.000000e+00	0.000000e+00	0.000000e+00	

                              *include 22nm_MGK.pm
                              DC transfer characteristic  Tue Nov 29 01:47:32  2022
--------------------------------------------------------------------------------
Index   temp-sweep      v(b2)           v(b1)           v(b0)           
--------------------------------------------------------------------------------
0	3.000000e+01	0.000000e+00	0.000000e+00	0.000000e+00	
1	1.000000e+02	0.000000e+00	0.000000e+00	0.000000e+00	

                              *include 22nm_MGK.pm
                              DC transfer characteristic  Tue Nov 29 01:47:32  2022
--------------------------------------------------------------------------------
Index   temp-sweep      (-v(node1)*i(vd 
--------------------------------------------------------------------------------
0	3.000000e+01	5.895971e-03	
1	1.000000e+02	6.003098e-03	
Doing analysis at TEMP = 27.000000 and TNOM = 27.000000


No. of Data Rows : 2
                              *include 22nm_MGK.pm
                              DC transfer characteristic  Tue Nov 29 01:47:32  2022
--------------------------------------------------------------------------------
Index   temp-sweep      v(node1)        v(a3)           v(a2)           
--------------------------------------------------------------------------------
0	3.000000e+01	1.800000e+00	0.000000e+00	1.800000e+00	
1	1.000000e+02	1.800000e+00	0.000000e+00	1.800000e+00	

                              *include 22nm_MGK.pm
                              DC transfer characteristic  TNote: Starting dynamic gmin stepping
Note: Dynamic gmin stepping completed
 Reference value :  3.00000e+01
Note: Starting dynamic gmin stepping
Note: Dynamic gmin stepping completed
 Reference value :  3.00000e+01
ue Nov 29 01:47:32  2022
--------------------------------------------------------------------------------
Index   temp-sweep      v(a1)           v(a0)           v(b3)           
--------------------------------------------------------------------------------
0	3.000000e+01	0.000000e+00	0.000000e+00	1.800000e+00	
1	1.000000e+02	0.000000e+00	0.000000e+00	1.800000e+00	

                              *include 22nm_MGK.pm
                              DC transfer characteristic  Tue Nov 29 01:47:32  2022
--------------------------------------------------------------------------------
Index   temp-sweep      v(b2)           v(b1)           v(b0)           
--------------------------------------------------------------------------------
0	3.000000e+01	0.000000e+00	0.000000e+00	0.000000e+00	
1	1.000000e+02	0.000000e+00	0.000000e+00	0.000000e+00	

                              *include 22nm_MGK.pm
                              DC transfer characteristic  Tue Nov 29 01:47:32  2022
--------------------------------------------------------------------------------
Index   temp-sweep      (-v(node1)*i(vd 
--------------------------------------------------------------------------------
0	3.000000e+01	5.932777e-03	
1	1.000000e+02	6.053491e-03	
Doing analysis at TEMP = 27.000000 and TNOM = 27.000000


No. of Data Rows : 2
                              *include 22nm_MGK.pm
                              DC transfer characteristic  Tue Nov 29 01:47:33  2022
--------------------------------------------------------------------------------
Index   temp-sweep      v(node1)        v(a3)           v(a2)           
--------------------------------------------------------------------------------
0	3.000000e+01	1.800000e+00	0.000000e+00	1.800000e+00	
1	1.000000e+02	1.800000e+00	0.000000e+00	1.800000e+00	

                              *include 22nm_MGK.pm
                              DC transfer characteristic  Tue Nov 29 01:47:33  2022
--------------------------------------------------------------------------------
Index   temp-sweep      v(a1)           v(a0)           v(b3)           
--------------------------------------------------------------------------------
0	3.000000e+01	0.000000e+00	0.000000e+00	0.000000e+00	
1	1.000000e+02	0.000000e+00	0.000000e+00	0.000000e+00	

                              *include 22nm_MGK.pm
                              DC transfer characteristic  Tue Nov 29 01:47:33  2022
--------------------------------------------------------------------------------
Index   temp-sweep      v(b2)           v(b1)           v(b0)           
--------------------------------------------------------------------------------
0	3.000000e+01	1.800000e+00	0.000000e+00	0.000000e+00	
1	1.000000e+02	1.800000e+00	0.000000e+00	0.000000e+00	

                              *include 22nm_MGK.pm
                              DC transfer characteristic  Tue Nov 29 01:47:33  2022
--------------------------------------------------------------------------------
Index   temp-sweep      (-v(node1)*i(vd 
--------------------------------------------------------------------------------
0	3.000000e+01	6.002751e-03	
1	1.000000e+02	6.125063e-03	
Doing analysis at TEMP = 27.000000 and TNOM = 27.000000


No. of Data Rows : 2
                              *include 22nm_MGK.pm
               Note: Starting dynamic gmin stepping
Note: Dynamic gmin stepping completed
 Reference value :  3.00000e+01
               DC transfer characteristic  Tue Nov 29 01:47:33  2022
--------------------------------------------------------------------------------
Index   temp-sweep      v(node1)        v(a3)           v(a2)           
--------------------------------------------------------------------------------
0	3.000000e+01	1.800000e+00	0.000000e+00	1.800000e+00	
1	1.000000e+02	1.800000e+00	0.000000e+00	1.800000e+00	

                              *include 22nm_MGK.pm
                              DC transfer characteristic  Tue Nov 29 01:47:33  2022
--------------------------------------------------------------------------------
Index   temp-sweep      v(a1)           v(a0)           v(b3)           
--------------------------------------------------------------------------------
0	3.000000e+01	0.000000e+00	0.000000e+00	1.800000e+00	
1	1.000000e+02	0.000000e+00	0.000000e+00	1.800000e+00	

                              *include 22nm_MGK.pm
                              DC transfer characteristic  Tue Nov 29 01:47:33  2022
--------------------------------------------------------------------------------
Index   temp-sweep      v(b2)           v(b1)           v(b0)           
--------------------------------------------------------------------------------
0	3.000000e+01	1.800000e+00	0.000000e+00	0.000000e+00	
1	1.000000e+02	1.800000e+00	0.000000e+00	0.000000e+00	

                              *include 22nm_MGK.pm
                              DC transfer characteristic  Tue Nov 29 01:47:33  2022
--------------------------------------------------------------------------------
Index   temp-sweep      (-v(node1)*i(vd 
--------------------------------------------------------------------------------
0	3.000000e+01	6.039425e-03	
1	1.000000e+02	6.175554e-03	
Doing analysis at TEMP = 27.000000 and TNOM = 27.000000


No. of Data Rows : 2
                              *include 22nm_MGK.pm
                              DC transfer characteristic  Tue Nov 29 01:47:33  2022
--------------------------------------------------------------------------------
Index   temp-sweep      v(node1)        v(a3)           v(a2)           
--------------------------------------------------------------------------------
0	3.000000e+01	1.800000e+00	0.000000e+00	1.800000e+00	
1	1.000000e+02	1.800000e+00	0.000000e+00	1.800000e+00	

                              *include 22nm_MGK.pm
                              DC transfer characteristic  Tue Nov 29 01:47:33  2022
--------------------------------------------------------------------------------
Index   temp-sweep      v(a1)           v(a0)           v(b3)           
--------------------------------------------------------------------------------
0	3.000000e+01	0.000000e+00	0.000000e+00	0.000000e+00	
1	1.000000e+02	0.000000e+00	0.000000e+00	0.000000e+00	

                              *include 22nm_MGK.pm
                              DC transfer characteristic  Tue Nov 29 01:47:33  2022
--------------------------------------------------------------------------------
Index   temp-sweep      v(b2)           v(b1)           v(b0)           
--------------------------------------------------------------------------------
0	3.000000e+01	0.000000e+00	1.800000e+00	0.000000e+00	
1	1.000000e+02	0.000000e+00	1.800000e+00	0.000000e+00	

                              *include 22nm_MGK.pm
                              DC transfer characteristic  Tue Nov 29 01:47:33  2022
--------------------------------------------------------------------------------
Index   temp-sweep      (-v(node1)*i(vd 
--------------------------------------------------------------------------------
0	3.000000e+01	5.975167e-03	
1	1.000000e+02	6.104278e-03	
Doing anaNote: Starting dynamic gmin stepping
Note: Dynamic gmin stepping completed
 Reference value :  3.00000e+01
Note: Starting dynamic gmin stepping
Note: Dynamic gmin stepping completed
 Reference value :  3.00000e+01
lysis at TEMP = 27.000000 and TNOM = 27.000000


No. of Data Rows : 2
                              *include 22nm_MGK.pm
                              DC transfer characteristic  Tue Nov 29 01:47:34  2022
--------------------------------------------------------------------------------
Index   temp-sweep      v(node1)        v(a3)           v(a2)           
--------------------------------------------------------------------------------
0	3.000000e+01	1.800000e+00	0.000000e+00	1.800000e+00	
1	1.000000e+02	1.800000e+00	0.000000e+00	1.800000e+00	

                              *include 22nm_MGK.pm
                              DC transfer characteristic  Tue Nov 29 01:47:34  2022
--------------------------------------------------------------------------------
Index   temp-sweep      v(a1)           v(a0)           v(b3)           
--------------------------------------------------------------------------------
0	3.000000e+01	0.000000e+00	0.000000e+00	1.800000e+00	
1	1.000000e+02	0.000000e+00	0.000000e+00	1.800000e+00	

                              *include 22nm_MGK.pm
                              DC transfer characteristic  Tue Nov 29 01:47:34  2022
--------------------------------------------------------------------------------
Index   temp-sweep      v(b2)           v(b1)           v(b0)           
--------------------------------------------------------------------------------
0	3.000000e+01	0.000000e+00	1.800000e+00	0.000000e+00	
1	1.000000e+02	0.000000e+00	1.800000e+00	0.000000e+00	

                              *include 22nm_MGK.pm
                              DC transfer characteristic  Tue Nov 29 01:47:34  2022
--------------------------------------------------------------------------------
Index   temp-sweep      (-v(node1)*i(vd 
--------------------------------------------------------------------------------
0	3.000000e+01	6.011838e-03	
1	1.000000e+02	6.154635e-03	
Doing analysis at TEMP = 27.000000 and TNOM = 27.000000


No. of Data Rows : 2
                              *include 22nm_MGK.pm
                              DC transfer characteristic  Tue Nov 29 01:47:34  2022
--------------------------------------------------------------------------------
Index   temp-sweep      v(node1)        v(a3)           v(a2)           
--------------------------------------------------------------------------------
0	3.000000e+01	1.800000e+00	0.000000e+00	1.800000e+00	
1	1.000000e+02	1.800000e+00	0.000000e+00	1.800000e+00	

                              *include 22nm_MGK.pm
                              DC transfer characteristic  Tue Nov 29 01:47:34  2022
--------------------------------------------------------------------------------
Index   temp-sweep      v(a1)           v(a0)           v(b3)           
--------------------------------------------------------------------------------
0	3.000000e+01	0.000000e+00	0.000000e+00	0.000000e+00	
1	1.000000e+02	0.000000e+00	0.000000e+00	0.000000e+00	

                              *include 22nm_MGK.pm
                              DC transfer characteristic  Tue Nov 29 01:47:34  2022
--------------------------------------------------------------------------------
Index   temp-sweep      v(b2)           v(b1)           v(b0)           
------------------------------------------------------------------------Note: Starting dynamic gmin stepping
Note: Dynamic gmin stepping completed
 Reference value :  3.00000e+01
Note: Starting dynamic gmin stepping
Note: Dynamic gmin stepping completed
 Reference value :  3.00000e+01
--------
0	3.000000e+01	1.800000e+00	1.800000e+00	0.000000e+00	
1	1.000000e+02	1.800000e+00	1.800000e+00	0.000000e+00	

                              *include 22nm_MGK.pm
                              DC transfer characteristic  Tue Nov 29 01:47:34  2022
--------------------------------------------------------------------------------
Index   temp-sweep      (-v(node1)*i(vd 
--------------------------------------------------------------------------------
0	3.000000e+01	6.082022e-03	
1	1.000000e+02	6.226596e-03	
Doing analysis at TEMP = 27.000000 and TNOM = 27.000000


No. of Data Rows : 2
                              *include 22nm_MGK.pm
[...]
Index   temp-sweep      v(node1)        v(a3)           v(a2)           
--------------------------------------------------------------------------------
0	3.000000e+01	1.800000e+00	1.800000e+00	1.800000e+00	
1	1.000000e+02	1.800000e+00	1.800000e+00	1.800000e+00	

                              *include 22nm_MGK.pm
                              DC transfer characteristic  Tue Nov 29 01:49:27  2022
--------------------------------------------------------------------------------
Index   temp-sweep      v(a1)           v(a0)           v(b3)           
--------------------------------------------------------------------------------
0	3.000000e+01	1.800000e+00	1.800000e+00	1.800000e+00	
1	1.000000e+02	1.800000e+00	1.800000e+00	1.800000e+00	

                              *include 22nm_MGK.pm
                              DC transfer characteristic  Tue Nov 29 01:49:27  2022
--------------------------------------------------------------------------------
Index   temp-sweep      v(b2)           v(b1)           v(b0)           
--------------------------------------------------------------------------------
0	3.000000e+01	0.000000e+00	1.800000e+00	0.000000e+00	
1	1.000000e+02	0.000000e+00	1.800000e+00	0.000000e+00	

                              *include 22nm_MGK.pm
                              DC transfer characteristic  Tue Nov 29 01:49:27  2022
--------------------------------------------------------------------------------
Index   temp-sweep      (-v(node1)*i(vd 
--------------------------------------------------------------------------------
0	3.000000e+01	6.510583e-03	
1	1.000000e+02	6.804358e-03	
Doing analysis at TEMP = 27.000000 and TNOM = 27.000000

Note: Dynamic gmin stepping completed
 Reference value :  3.00000e+01
 != toxp + dtox; dtox ignored.

No. of Data Rows : 2
                              *include 22nm_MGK.pm
                              DC transfer characteristic  Tue Nov 29 01:49:28  2022
--------------------------------------------------------------------------------
Index   temp-sweep      v(node1)        v(a3)           v(a2)           
--------------------------------------------------------------------------------
0	3.000000e+01	1.800000e+00	1.800000e+00	1.800000e+00	
1	1.000000e+02	1.800000e+00	1.800000e+00	1.800000e+00	

                              *include 22nm_MGK.pm
                              DC transfer characteristic  Tue Nov 29 01:49:28  2022
--------------------------------------------------------------------------------
Index   temp-sweep      v(a1)           v(a0)           v(b3)           
--------------------------------------------------------------------------------
0	3.000000e+01	1.800000e+00	1.800000e+00	0.000000e+00	
1	1.000000e+02	1.800000e+00	1.800000e+00	0.000000e+00	

                              *include 22nm_MGK.pm
                              DC transfer characteristic  Tue Nov 29 01:49:28  2022
--------------------------------------------------------------------------------
Index   temp-sweep      v(b2)           v(b1)           v(b0)           
--------------------------------------------------------------------------------
0	3.000000e+01	1.800000e+00	1.800000e+00	0.000000e+00	
1	1.000000e+02	1.800000e+00	1.800000e+00	0.000000e+00	

                              *include 22nm_MGK.pm
                              DC transfer characteristic  Tue Nov 29 01:49:28  2022
--------------------------------------------------------------------------------
Index   temp-sweep      (-v(node1)*i(vd 
--------------------------------------------------------------------------------
0	3.000000e+01	6.504995e-03	
1	1.000000e+02	6.828386e-03	
Doing analysis at TEMP = 27.000000 and TNOM = 27.000000


No. of Data Rows : 2
                              *include 22nm_MGK.pm
                              DC transfer characteristic  Tue Nov 29 01:49:28  2022
--------------------------------------------------------------------------------
Index   temp-sweep      v(node1)        v(a3)           v(a2)           
--------------------------------------------------------------------------------
0	3.000000e+01	1.800000e+00	1.800000e+00	1.800000e+00	
1	1.000000e+02	1.800000e+00	1.800000e+00	1.800000e+00	

                              *include 22nm_MGK.pm
                              DC transfer characteristic  Tue Nov 29 01:49:28  2022
--------------------------------------------------------------------------------
Index   temp-sweep      v(a1)           v(a0)           v(b3)           
--------------------------------------------------------------------------------
0	3.000000e+01	1.800000e+00	1.800000e+00	1.800000e+00	
1	1.000000e+02	1.800000e+00	1.800000e+00	1.800000e+00	

                              *include 22nm_MGK.pm
                              DC transfer characteristic  Tue Nov 29 01:49:28  2022
--------------------------------------------------------------------------------
Index   temp-sweep      v(b2)           v(b1)           v(b0)           
--------------------------------------------------------------------------------
0	3.000000e+01	1.800000e+00	1.800000e+00	0.000000e+00	
1	1.000000e+02	1.800000e+00	1.800000e+00	0.000000e+00	

                              *include 22nm_MGK.pm
                              DC transfer characteristic  Tue Nov 29 01:49:28  2022
-------------------------------------------------------------------------Note: Starting dynamic gmin stepping
Note: Dynamic gmin stepping completed
 Reference value :  3.00000e+01
Note: Starting dynamic gmin stepping
Note: Dynamic gmin stepping completed
 Reference value :  3.00000e+01
-------
Index   temp-sweep      (-v(node1)*i(vd 
--------------------------------------------------------------------------------
0	3.000000e+01	6.673418e-03	
1	1.000000e+02	7.136507e-03	
Doing analysis at TEMP = 27.000000 and TNOM = 27.000000


No. of Data Rows : 2
                              *include 22nm_MGK.pm
                              DC transfer characteristic  Tue Nov 29 01:49:29  2022
--------------------------------------------------------------------------------
Index   temp-sweep      v(node1)        v(a3)           v(a2)           
--------------------------------------------------------------------------------
0	3.000000e+01	1.800000e+00	1.800000e+00	1.800000e+00	
1	1.000000e+02	1.800000e+00	1.800000e+00	1.800000e+00	

                              *include 22nm_MGK.pm
                              DC transfer characteristic  Tue Nov 29 01:49:29  2022
--------------------------------------------------------------------------------
Index   temp-sweep      v(a1)           v(a0)           v(b3)           
--------------------------------------------------------------------------------
0	3.000000e+01	1.800000e+00	1.800000e+00	0.000000e+00	
1	1.000000e+02	1.800000e+00	1.800000e+00	0.000000e+00	

                              *include 22nm_MGK.pm
                              DC transfer characteristic  Tue Nov 29 01:49:29  2022
--------------------------------------------------------------------------------
Index   temp-sweep      v(b2)           v(b1)           v(b0)           
--------------------------------------------------------------------------------
0	3.000000e+01	0.000000e+00	0.000000e+00	1.800000e+00	
1	1.000000e+02	0.000000e+00	0.000000e+00	1.800000e+00	

                              *include 22nm_MGK.pm
                              DC transfer characteristic  Tue Nov 29 01:49:29  2022
--------------------------------------------------------------------------------
Index   temp-sweep      (-v(node1)*i(vd 
--------------------------------------------------------------------------------
0	3.000000e+01	5.977752e-03	
1	1.000000e+02	6.128277e-03	
Doing analysis at TEMP = 27.000000 and TNOM = 27.000000


No. of Data Rows : 2
                              *include 22nm_MGK.pm
                              DC transfer characteristic  Tue Nov 29 01:49:29  2022
--------------------------------------------------------------------------------
Index   temp-sweep      v(node1)        v(a3)           v(a2)           
--------------------------------------------------------------------------------
0	3.000000e+01	1.800000e+00	1.800000e+00	1.800000e+00	
1	1.000000e+02	1.800000e+00	1.800000e+00	1.800000e+00	

                              *include 22nm_MGK.pm
                              DC transfer characteristic  Tue Nov 29 01:49:29  2022
--------------------------------------------------------------------------------
Index   temp-sweep      v(a1)           v(a0)           v(b3)           
--------------------------------------------------------------------------------
0	3.000000e+01	1.800000e+00	1.800000e+00	1.800000e+00	
1	1.000000e+02	1.800000e+00	1.800000e+00	1.800000e+00	

                              *include 22nm_MGK.pm
                              DC transfer characteristic  Tue Nov 29 01:49:29  2022
-----------------------------Note: Starting dynamic gmin stepping
Note: Dynamic gmin stepping completed
 Reference value :  3.00000e+01
Note: Starting dynamic gmin stepping
Note: Dynamic gmin stepping completed
 Reference value :  3.00000e+01
---------------------------------------------------
Index   temp-sweep      v(b2)           v(b1)           v(b0)           
--------------------------------------------------------------------------------
0	3.000000e+01	0.000000e+00	0.000000e+00	1.800000e+00	
1	1.000000e+02	0.000000e+00	0.000000e+00	1.800000e+00	

                              *include 22nm_MGK.pm
                              DC transfer characteristic  Tue Nov 29 01:49:29  2022
--------------------------------------------------------------------------------
Index   temp-sweep      (-v(node1)*i(vd 
--------------------------------------------------------------------------------
0	3.000000e+01	6.285221e-03	
1	1.000000e+02	6.586715e-03	
Doing analysis at TEMP = 27.000000 and TNOM = 27.000000


No. of Data Rows : 2
                              *include 22nm_MGK.pm
                              DC transfer characteristic  Tue Nov 29 01:49:30  2022
--------------------------------------------------------------------------------
Index   temp-sweep      v(node1)        v(a3)           v(a2)           
--------------------------------------------------------------------------------
0	3.000000e+01	1.800000e+00	1.800000e+00	1.800000e+00	
1	1.000000e+02	1.800000e+00	1.800000e+00	1.800000e+00	

                              *include 22nm_MGK.pm
                              DC transfer characteristic  Tue Nov 29 01:49:30  2022
--------------------------------------------------------------------------------
Index   temp-sweep      v(a1)           v(a0)           v(b3)           
--------------------------------------------------------------------------------
0	3.000000e+01	1.800000e+00	1.800000e+00	0.000000e+00	
1	1.000000e+02	1.800000e+00	1.800000e+00	0.000000e+00	

                              *include 22nm_MGK.pm
                              DC transfer characteristic  Tue Nov 29 01:49:30  2022
--------------------------------------------------------------------------------
Index   temp-sweep      v(b2)           v(b1)           v(b0)           
--------------------------------------------------------------------------------
0	3.000000e+01	1.800000e+00	0.000000e+00	1.800000e+00	
1	1.000000e+02	1.800000e+00	0.000000e+00	1.800000e+00	

                              *include 22nm_MGK.pm
                              DC transfer characteristic  Tue Nov 29 01:49:30  2022
--------------------------------------------------------------------------------
Index   temp-sweep      (-v(node1)*i(vd 
--------------------------------------------------------------------------------
0	3.000000e+01	6.241351e-03	
1	1.000000e+02	6.524658e-03	
Doing analysis at TEMP = 27.000000 and TNOM = 27.000000


No. of Data Rows : 2
                              *include 22nm_MGK.pm
                              DC transfer characteristic  Tue Nov 29 01:49:30  2022
--------------------------------------------------------------------------------
Index   temp-sweep      v(node1)        v(a3)           v(a2)           
--------------------------------------------------------------------------------
0	3.000000e+01	1.800000e+00	1.800000e+00	1.800000e+00	
1	1.000000e+02	1.800000e+00	1.800000e+00	1.800000e+00	

                              *include 22nm_MGK.pm
                              DC transfer characteristic  Tue Nov 29 Note: Starting dynamic gmin stepping
Note: Dynamic gmin stepping completed
 Reference value :  3.00000e+01
Note: Starting dynamic gmin stepping
Note: Dynamic gmin stepping completed
 Reference value :  3.00000e+01
01:49:30  2022
--------------------------------------------------------------------------------
Index   temp-sweep      v(a1)           v(a0)           v(b3)           
--------------------------------------------------------------------------------
0	3.000000e+01	1.800000e+00	1.800000e+00	1.800000e+00	
1	1.000000e+02	1.800000e+00	1.800000e+00	1.800000e+00	

                              *include 22nm_MGK.pm
                              DC transfer characteristic  Tue Nov 29 01:49:30  2022
--------------------------------------------------------------------------------
Index   temp-sweep      v(b2)           v(b1)           v(b0)           
--------------------------------------------------------------------------------
0	3.000000e+01	1.800000e+00	0.000000e+00	1.800000e+00	
1	1.000000e+02	1.800000e+00	0.000000e+00	1.800000e+00	

                              *include 22nm_MGK.pm
                              DC transfer characteristic  Tue Nov 29 01:49:30  2022
--------------------------------------------------------------------------------
Index   temp-sweep      (-v(node1)*i(vd 
--------------------------------------------------------------------------------
0	3.000000e+01	6.517378e-03	
1	1.000000e+02	6.963103e-03	
Doing analysis at TEMP = 27.000000 and TNOM = 27.000000


No. of Data Rows : 2
                              *include 22nm_MGK.pm
                              DC transfer characteristic  Tue Nov 29 01:49:31  2022
--------------------------------------------------------------------------------
Index   temp-sweep      v(node1)        v(a3)           v(a2)           
--------------------------------------------------------------------------------
0	3.000000e+01	1.800000e+00	1.800000e+00	1.800000e+00	
1	1.000000e+02	1.800000e+00	1.800000e+00	1.800000e+00	

                              *include 22nm_MGK.pm
                              DC transfer characteristic  Tue Nov 29 01:49:31  2022
--------------------------------------------------------------------------------
Index   temp-sweep      v(a1)           v(a0)           v(b3)           
--------------------------------------------------------------------------------
0	3.000000e+01	1.800000e+00	1.800000e+00	0.000000e+00	
1	1.000000e+02	1.800000e+00	1.800000e+00	0.000000e+00	

                              *include 22nm_MGK.pm
                              DC transfer characteristic  Tue Nov 29 01:49:31  2022
--------------------------------------------------------------------------------
Index   temp-sweep      v(b2)           v(b1)           v(b0)           
--------------------------------------------------------------------------------
0	3.000000e+01	0.000000e+00	1.800000e+00	1.800000e+00	
1	1.000000e+02	0.000000e+00	1.800000e+00	1.800000e+00	

                              *include 22nm_MGK.pm
                              DC transfer characteristic  Tue Nov 29 01:49:31  2022
--------------------------------------------------------------------------------
Index   temp-sweep      (-v(node1)*i(vd 
--------------------------------------------------------------------------------
0	3.000000e+01	6.223465e-03	
1	1.000000e+02	6.525723e-03	
Doing analysis at TEMP = 27.000000 and TNOM = 27.000000


No. of Data Rows : 2
                              *include 22nm_MGK.pm
                         Note: Starting dynamic gmin stepping
Note: Dynamic gmin stepping completed
 Reference value :  3.00000e+01
     DC transfer characteristic  Tue Nov 29 01:49:31  2022
--------------------------------------------------------------------------------
Index   temp-sweep      v(node1)        v(a3)           v(a2)           
--------------------------------------------------------------------------------
0	3.000000e+01	1.800000e+00	1.800000e+00	1.800000e+00	
1	1.000000e+02	1.800000e+00	1.800000e+00	1.800000e+00	

                              *include 22nm_MGK.pm
                              DC transfer characteristic  Tue Nov 29 01:49:31  2022
--------------------------------------------------------------------------------
Index   temp-sweep      v(a1)           v(a0)           v(b3)           
--------------------------------------------------------------------------------
0	3.000000e+01	1.800000e+00	1.800000e+00	1.800000e+00	
1	1.000000e+02	1.800000e+00	1.800000e+00	1.800000e+00	

                              *include 22nm_MGK.pm
                              DC transfer characteristic  Tue Nov 29 01:49:31  2022
--------------------------------------------------------------------------------
Index   temp-sweep      v(b2)           v(b1)           v(b0)           
--------------------------------------------------------------------------------
0	3.000000e+01	0.000000e+00	1.800000e+00	1.800000e+00	
1	1.000000e+02	0.000000e+00	1.800000e+00	1.800000e+00	

                              *include 22nm_MGK.pm
                              DC transfer characteristic  Tue Nov 29 01:49:31  2022
--------------------------------------------------------------------------------
Index   temp-sweep      (-v(node1)*i(vd 
--------------------------------------------------------------------------------
0	3.000000e+01	6.444861e-03	
1	1.000000e+02	6.918121e-03	
Doing analysis at TEMP = 27.000000 and TNOM = 27.000000


No. of Data Rows : 2
                              *include 22nm_MGK.pm
                              DC transfer characteristic  Tue Nov 29 01:49:32  2022
--------------------------------------------------------------------------------
Index   temp-sweep      v(node1)        v(a3)           v(a2)           
--------------------------------------------------------------------------------
0	3.000000e+01	1.800000e+00	1.800000e+00	1.800000e+00	
1	1.000000e+02	1.800000e+00	1.800000e+00	1.800000e+00	

                              *include 22nm_MGK.pm
                              DC transfer characteristic  Tue Nov 29 01:49:32  2022
--------------------------------------------------------------------------------
Index   temp-sweep      v(a1)           v(a0)           v(b3)           
--------------------------------------------------------------------------------
0	3.000000e+01	1.800000e+00	1.800000e+00	0.000000e+00	
1	1.000000e+02	1.800000e+00	1.800000e+00	0.000000e+00	

                              *include 22nm_MGK.pm
                              DC transfer characteristic  Tue Nov 29 01:49:32  2022
--------------------------------------------------------------------------------
Index   temp-sweep      v(b2)           v(b1)           v(b0)           
--------------------------------------------------------------------------------
0	3.000000e+01	1.800000e+00	1.800000e+00	1.800000e+00	
1	1.000000e+02	1.800000e+00	1.800000e+00	1.800000e+00	

                              *include 22nm_MGK.pm
                              DC transfer characteristic  Tue Nov 29 01:49:32  2022
--------------------------------------------------------------------------------
Index   temp-sweep      (-v(node1)*i(vd 
--------------------------------------------------------------------------------
0	3.000000e+01	6.471301e-03	
1	1.000000e+02	6.917880e-03	
Doing analysis at TNote: Starting dynamic gmin stepping
Note: Dynamic gmin stepping completed
 Reference value :  3.00000e+01
Error: no block to end.

Interrupted once . . .
